Version 4
SHEET 1 972 680
WIRE 224 96 0 96
WIRE 384 96 224 96
WIRE 464 176 384 176
WIRE 560 176 528 176
WIRE 560 192 560 176
WIRE 112 368 64 368
WIRE 224 368 224 176
WIRE 224 368 176 368
WIRE 320 368 320 224
WIRE 320 368 224 368
WIRE 384 368 384 272
WIRE 560 368 384 368
WIRE -16 432 -16 368
WIRE 224 432 224 368
WIRE 384 432 384 368
WIRE 560 432 560 368
FLAG 560 272 0
FLAG 384 512 0
FLAG 224 512 0
FLAG -16 512 0
FLAG 560 496 0
FLAG 0 176 0
SYMBOL voltage 0 80 R0
WINDOW 123 0 0 Left 0
WINDOW 39 0 0 Left 0
SYMATTR InstName V1
SYMATTR Value 15
SYMBOL voltage -16 416 R0
WINDOW 123 24 124 Left 2
WINDOW 39 0 0 Left 0
SYMATTR InstName V2
SYMATTR Value SINE(0 14.14m 2k)
SYMATTR Value2 AC 14.14m
SYMBOL res 80 352 R90
WINDOW 0 0 56 VBottom 2
WINDOW 3 32 56 VTop 2
SYMATTR InstName R1
SYMATTR Value 1k
SYMBOL res 208 80 R0
SYMATTR InstName R2
SYMATTR Value 309k
SYMBOL res 368 80 R0
SYMATTR InstName R3
SYMATTR Value 6k98
SYMBOL res 208 416 R0
SYMATTR InstName R4
SYMATTR Value 110k
SYMBOL cap 176 352 R90
WINDOW 0 0 32 VBottom 2
WINDOW 3 32 32 VTop 2
SYMATTR InstName C1
SYMATTR Value 1.95µ
SYMBOL npn 320 176 R0
SYMATTR InstName Q1
SYMATTR Value BC547B
SYMBOL res 368 416 R0
SYMATTR InstName R5
SYMATTR Value 3k01
SYMBOL cap 528 160 R90
WINDOW 0 0 32 VBottom 2
WINDOW 3 32 32 VTop 2
SYMATTR InstName C2
SYMATTR Value 937.31n
SYMBOL res 544 176 R0
SYMATTR InstName R6
SYMATTR Value 10k
SYMBOL cap 544 432 R0
SYMATTR InstName C3
SYMATTR Value 68.22µ
TEXT -48 536 Left 2 ;.tran 0 1 0 0.001
TEXT 616 56 Left 2 !.ac dec 1000000 100k 10Meg
