Version 4
SHEET 1 880 680
WIRE 208 -192 112 -192
WIRE 384 -192 208 -192
WIRE 384 -160 384 -192
WIRE 208 -96 208 -192
WIRE 384 -48 384 -80
WIRE 480 -48 384 -48
WIRE 608 -48 544 -48
WIRE 688 -48 608 -48
WIRE 384 -16 384 -48
WIRE 608 -16 608 -48
WIRE -32 32 -176 32
WIRE 96 32 48 32
WIRE 208 32 208 -16
WIRE 208 32 160 32
WIRE 336 32 336 16
WIRE 336 32 208 32
WIRE 336 64 336 32
WIRE 208 80 208 32
WIRE 608 96 608 64
WIRE 384 112 384 80
WIRE 512 112 384 112
WIRE 384 128 384 112
WIRE 512 144 512 112
WIRE 208 240 208 160
WIRE 384 256 384 208
WIRE 448 256 384 256
WIRE 512 256 512 208
WIRE 512 256 448 256
WIRE 448 288 448 256
FLAG 608 96 0
FLAG 208 240 0
FLAG 448 288 0
FLAG -176 32 INPUT
FLAG -176 144 INPUT
FLAG 112 -192 VCC
FLAG -176 -144 VCC
FLAG 688 -48 OUTPUT
FLAG -176 224 0
FLAG -176 -64 0
SYMBOL res 192 64 R0
SYMATTR InstName Rg2
SYMATTR Value 210K
SYMBOL res 192 -112 R0
SYMATTR InstName Rg1
SYMATTR Value 210K
SYMBOL res 368 -176 R0
SYMATTR InstName RC1
SYMATTR Value 55K
SYMBOL res 368 112 R0
WINDOW 3 30 86 Left 2
SYMATTR Value 150
SYMATTR InstName RE1
SYMBOL res 592 -32 R0
SYMATTR InstName R_load1
SYMATTR Value 10k
SYMBOL res 64 16 R90
WINDOW 0 0 56 VBottom 2
WINDOW 3 32 56 VTop 2
SYMATTR InstName R_sig1
SYMATTR Value 0
SYMBOL cap 160 16 R90
WINDOW 0 0 32 VBottom 2
WINDOW 3 32 32 VTop 2
SYMATTR InstName C_B1
SYMATTR Value 1.94µ
SYMBOL cap 544 -64 R90
WINDOW 0 0 32 VBottom 2
WINDOW 3 32 32 VTop 2
SYMATTR InstName C_C1
SYMATTR Value 0.94µ
SYMBOL cap 528 208 R180
WINDOW 0 24 56 Left 2
WINDOW 3 -57 17 Left 2
SYMATTR InstName C_E1
SYMATTR Value 20µ
SYMBOL voltage -176 -160 R0
SYMATTR InstName V1
SYMATTR Value 12V
SYMBOL Misc\\signal -176 128 R0
SYMATTR InstName V2
SYMATTR Value AC 1
SYMBOL nmos 336 -16 R0
SYMATTR InstName M1
TEXT -376 360 Left 2 !.ac dec 1000 1 10Meg
